15431
  -OEChem-08291819052D

 21 21  0     0  0  0  0  0  0999 V2000
    2.8090    0.0194    0.0000 C   0  0  0  0  0  0  0  0  0  0  0  0
    2.0000   -0.5684    0.0000 C   0  0  0  0  0  0  0  0  0  0  0  0
    3.6180   -0.5684    0.0000 C   0  0  0  0  0  0  0  0  0  0  0  0
    2.3090   -1.5194    0.0000 C   0  0  0  0  0  0  0  0  0  0  0  0
    3.3090   -1.5194    0.0000 C   0  0  0  0  0  0  0  0  0  0  0  0
    2.8090    1.0194    0.0000 C   0  0  0  0  0  0  0  0  0  0  0  0
    3.6750    1.5194    0.0000 C   0  0  0  0  0  0  0  0  0  0  0  0
    3.3614    0.3009    0.0000 H   0  0  0  0  0  0  0  0  0  0  0  0
    1.6900   -0.0314    0.0000 H   0  0  0  0  0  0  0  0  0  0  0  0
    4.1844   -0.8205    0.0000 H   0  0  0  0  0  0  0  0  0  0  0  0
    1.4336   -0.8205    0.0000 H   0  0  0  0  0  0  0  0  0  0  0  0
    3.9280   -0.0314    0.0000 H   0  0  0  0  0  0  0  0  0  0  0  0
    3.2442   -2.1360    0.0000 H   0  0  0  0  0  0  0  0  0  0  0  0
    1.7026   -1.6483    0.0000 H   0  0  0  0  0  0  0  0  0  0  0  0
    3.9155   -1.6483    0.0000 H   0  0  0  0  0  0  0  0  0  0  0  0
    2.3738   -2.1360    0.0000 H   0  0  0  0  0  0  0  0  0  0  0  0
    2.5970    1.6020    0.0000 H   0  0  0  0  0  0  0  0  0  0  0  0
    2.1984    0.9118    0.0000 H   0  0  0  0  0  0  0  0  0  0  0  0
    3.9850    0.9825    0.0000 H   0  0  0  0  0  0  0  0  0  0  0  0
    4.2120    1.8294    0.0000 H   0  0  0  0  0  0  0  0  0  0  0  0
    3.3650    2.0564    0.0000 H   0  0  0  0  0  0  0  0  0  0  0  0
  1  2  1  0  0  0  0
  1  3  1  0  0  0  0
  1  6  1  0  0  0  0
  1  8  1  0  0  0  0
  2  4  1  0  0  0  0
  2  9  1  0  0  0  0
  2 11  1  0  0  0  0
  3  5  1  0  0  0  0
  3 10  1  0  0  0  0
  3 12  1  0  0  0  0
  4  5  1  0  0  0  0
  4 14  1  0  0  0  0
  4 16  1  0  0  0  0
  5 13  1  0  0  0  0
  5 15  1  0  0  0  0
  6  7  1  0  0  0  0
  6 17  1  0  0  0  0
  6 18  1  0  0  0  0
  7 19  1  0  0  0  0
  7 20  1  0  0  0  0
  7 21  1  0  0  0  0
M  END
> <PUBCHEM_COMPOUND_CID>
15431

> <PUBCHEM_COMPOUND_CANONICALIZED>
1

> <PUBCHEM_CACTVS_COMPLEXITY>
42

> <PUBCHEM_CACTVS_HBOND_ACCEPTOR>
0

> <PUBCHEM_CACTVS_HBOND_DONOR>
0

> <PUBCHEM_CACTVS_ROTATABLE_BOND>
1

> <PUBCHEM_CACTVS_SUBSKEYS>
AAADccBgAAAAAAAAAAAAAAAAAAAAAYAAAAAAAAAAAAAAAAAAAAAAGAAAAAAADQCAAAACAAAAAAAAAAAAAAAAAAAAAAAAAAAAAAAAAAIAAAAAAAAAAAAAAAEAgAAOAAAAAAAAAAAAAAAAAAAAAAAAAAAAAA==

> <PUBCHEM_IUPAC_OPENEYE_NAME>
ethylcyclopentane

> <PUBCHEM_IUPAC_CAS_NAME>
ethylcyclopentane

> <PUBCHEM_IUPAC_NAME>
ethylcyclopentane

> <PUBCHEM_IUPAC_SYSTEMATIC_NAME>
ethylcyclopentane

> <PUBCHEM_IUPAC_TRADITIONAL_NAME>
ethylcyclopentane

> <PUBCHEM_IUPAC_INCHI>
InChI=1S/C7H14/c1-2-7-5-3-4-6-7/h7H,2-6H2,1H3

> <PUBCHEM_IUPAC_INCHIKEY>
IFTRQJLVEBNKJK-UHFFFAOYSA-N

> <PUBCHEM_XLOGP3_AA>
3.5

> <PUBCHEM_EXACT_MASS>
98.11

> <PUBCHEM_MOLECULAR_FORMULA>
C7H14

> <PUBCHEM_MOLECULAR_WEIGHT>
98.189

> <PUBCHEM_OPENEYE_CAN_SMILES>
CCC1CCCC1

> <PUBCHEM_OPENEYE_ISO_SMILES>
CCC1CCCC1

> <PUBCHEM_CACTVS_TPSA>
0

> <PUBCHEM_MONOISOTOPIC_WEIGHT>
98.11

> <PUBCHEM_TOTAL_CHARGE>
0

> <PUBCHEM_HEAVY_ATOM_COUNT>
7

> <PUBCHEM_ATOM_DEF_STEREO_COUNT>
0

> <PUBCHEM_ATOM_UDEF_STEREO_COUNT>
0

> <PUBCHEM_BOND_DEF_STEREO_COUNT>
0

> <PUBCHEM_BOND_UDEF_STEREO_COUNT>
0

> <PUBCHEM_ISOTOPIC_ATOM_COUNT>
0

> <PUBCHEM_COMPONENT_COUNT>
1

> <PUBCHEM_CACTVS_TAUTO_COUNT>
1

> <PUBCHEM_COORDINATE_TYPE>
1
5
255

$$$$
