15506
  -OEChem-08291819062D

 30 30  0     0  0  0  0  0  0999 V2000
    2.8660   -0.5000    0.0000 C   0  0  0  0  0  0  0  0  0  0  0  0
    2.0000   -1.0000    0.0000 C   0  0  0  0  0  0  0  0  0  0  0  0
    3.7320   -1.0000    0.0000 C   0  0  0  0  0  0  0  0  0  0  0  0
    2.0000   -2.0000    0.0000 C   0  0  0  0  0  0  0  0  0  0  0  0
    3.7320   -2.0000    0.0000 C   0  0  0  0  0  0  0  0  0  0  0  0
    2.8660    0.5000    0.0000 C   0  0  0  0  0  0  0  0  0  0  0  0
    2.8660   -2.5000    0.0000 C   0  0  0  0  0  0  0  0  0  0  0  0
    3.7320    1.0000    0.0000 C   0  0  0  0  0  0  0  0  0  0  0  0
    3.7320    2.0000    0.0000 C   0  0  0  0  0  0  0  0  0  0  0  0
    4.5981    2.5000    0.0000 C   0  0  0  0  0  0  0  0  0  0  0  0
    3.4030   -0.1900    0.0000 H   0  0  0  0  0  0  0  0  0  0  0  0
    1.7880   -0.4174    0.0000 H   0  0  0  0  0  0  0  0  0  0  0  0
    1.3894   -1.1077    0.0000 H   0  0  0  0  0  0  0  0  0  0  0  0
    4.3426   -1.1077    0.0000 H   0  0  0  0  0  0  0  0  0  0  0  0
    3.9441   -0.4174    0.0000 H   0  0  0  0  0  0  0  0  0  0  0  0
    1.3894   -1.8923    0.0000 H   0  0  0  0  0  0  0  0  0  0  0  0
    1.7880   -2.5826    0.0000 H   0  0  0  0  0  0  0  0  0  0  0  0
    3.9441   -2.5826    0.0000 H   0  0  0  0  0  0  0  0  0  0  0  0
    4.3426   -1.8923    0.0000 H   0  0  0  0  0  0  0  0  0  0  0  0
    2.6540    1.0826    0.0000 H   0  0  0  0  0  0  0  0  0  0  0  0
    2.2554    0.3923    0.0000 H   0  0  0  0  0  0  0  0  0  0  0  0
    2.4675   -2.9750    0.0000 H   0  0  0  0  0  0  0  0  0  0  0  0
    3.2646   -2.9750    0.0000 H   0  0  0  0  0  0  0  0  0  0  0  0
    3.9441    0.4174    0.0000 H   0  0  0  0  0  0  0  0  0  0  0  0
    4.3426    1.1077    0.0000 H   0  0  0  0  0  0  0  0  0  0  0  0
    3.5200    2.5826    0.0000 H   0  0  0  0  0  0  0  0  0  0  0  0
    3.1215    1.8923    0.0000 H   0  0  0  0  0  0  0  0  0  0  0  0
    4.9081    1.9631    0.0000 H   0  0  0  0  0  0  0  0  0  0  0  0
    5.1350    2.8100    0.0000 H   0  0  0  0  0  0  0  0  0  0  0  0
    4.2881    3.0369    0.0000 H   0  0  0  0  0  0  0  0  0  0  0  0
  1  2  1  0  0  0  0
  1  3  1  0  0  0  0
  1  6  1  0  0  0  0
  1 11  1  0  0  0  0
  2  4  1  0  0  0  0
  2 12  1  0  0  0  0
  2 13  1  0  0  0  0
  3  5  1  0  0  0  0
  3 14  1  0  0  0  0
  3 15  1  0  0  0  0
  4  7  1  0  0  0  0
  4 16  1  0  0  0  0
  4 17  1  0  0  0  0
  5  7  1  0  0  0  0
  5 18  1  0  0  0  0
  5 19  1  0  0  0  0
  6  8  1  0  0  0  0
  6 20  1  0  0  0  0
  6 21  1  0  0  0  0
  7 22  1  0  0  0  0
  7 23  1  0  0  0  0
  8  9  1  0  0  0  0
  8 24  1  0  0  0  0
  8 25  1  0  0  0  0
  9 10  1  0  0  0  0
  9 26  1  0  0  0  0
  9 27  1  0  0  0  0
 10 28  1  0  0  0  0
 10 29  1  0  0  0  0
 10 30  1  0  0  0  0
M  END
> <PUBCHEM_COMPOUND_CID>
15506

> <PUBCHEM_COMPOUND_CANONICALIZED>
1

> <PUBCHEM_CACTVS_COMPLEXITY>
70.1

> <PUBCHEM_CACTVS_HBOND_ACCEPTOR>
0

> <PUBCHEM_CACTVS_HBOND_DONOR>
0

> <PUBCHEM_CACTVS_ROTATABLE_BOND>
3

> <PUBCHEM_CACTVS_SUBSKEYS>
AAADceBwAAAAAAAAAAAAAAAAAAAAAAAAAAAwAAAAAAAAAAAAAAAAGAAAAAAADQCAAAACAAAAAAAAAAAAAAAAAAAAAAAAAAAAAAAAAAIAAAAAAAAAAAAAAAEAgIAOAAAAAAAAAAAAAAAAAAAAAAAAAAAAAA==

> <PUBCHEM_IUPAC_OPENEYE_NAME>
butylcyclohexane

> <PUBCHEM_IUPAC_CAS_NAME>
butylcyclohexane

> <PUBCHEM_IUPAC_NAME>
butylcyclohexane

> <PUBCHEM_IUPAC_SYSTEMATIC_NAME>
butylcyclohexane

> <PUBCHEM_IUPAC_TRADITIONAL_NAME>
butylcyclohexane

> <PUBCHEM_IUPAC_INCHI>
InChI=1S/C10H20/c1-2-3-7-10-8-5-4-6-9-10/h10H,2-9H2,1H3

> <PUBCHEM_IUPAC_INCHIKEY>
GGBJHURWWWLEQH-UHFFFAOYSA-N

> <PUBCHEM_XLOGP3_AA>
5.1

> <PUBCHEM_EXACT_MASS>
140.157

> <PUBCHEM_MOLECULAR_FORMULA>
C10H20

> <PUBCHEM_MOLECULAR_WEIGHT>
140.27

> <PUBCHEM_OPENEYE_CAN_SMILES>
CCCCC1CCCCC1

> <PUBCHEM_OPENEYE_ISO_SMILES>
CCCCC1CCCCC1

> <PUBCHEM_CACTVS_TPSA>
0

> <PUBCHEM_MONOISOTOPIC_WEIGHT>
140.157

> <PUBCHEM_TOTAL_CHARGE>
0

> <PUBCHEM_HEAVY_ATOM_COUNT>
10

> <PUBCHEM_ATOM_DEF_STEREO_COUNT>
0

> <PUBCHEM_ATOM_UDEF_STEREO_COUNT>
0

> <PUBCHEM_BOND_DEF_STEREO_COUNT>
0

> <PUBCHEM_BOND_UDEF_STEREO_COUNT>
0

> <PUBCHEM_ISOTOPIC_ATOM_COUNT>
0

> <PUBCHEM_COMPONENT_COUNT>
1

> <PUBCHEM_CACTVS_TAUTO_COUNT>
1

> <PUBCHEM_COORDINATE_TYPE>
1
5
255

$$$$
