20082
  -OEChem-08291819052D

 24 24  0     0  0  0  0  0  0999 V2000
    4.1906    0.0000    0.0000 C   0  0  0  0  0  0  0  0  0  0  0  0
    3.7568   -0.9010    0.0000 C   0  0  0  0  0  0  0  0  0  0  0  0
    3.7568    0.9010    0.0000 C   0  0  0  0  0  0  0  0  0  0  0  0
    2.7818   -1.1235    0.0000 C   0  0  0  0  0  0  0  0  0  0  0  0
    2.7818    1.1235    0.0000 C   0  0  0  0  0  0  0  0  0  0  0  0
    2.0000    0.5000    0.0000 C   0  0  0  0  0  0  0  0  0  0  0  0
    2.0000   -0.5000    0.0000 C   0  0  0  0  0  0  0  0  0  0  0  0
    5.1906    0.0000    0.0000 C   0  0  0  0  0  0  0  0  0  0  0  0
    4.5205    0.5250    0.0000 H   0  0  0  0  0  0  0  0  0  0  0  0
    4.3612    1.0389    0.0000 H   0  0  0  0  0  0  0  0  0  0  0  0
    3.7568    1.5210    0.0000 H   0  0  0  0  0  0  0  0  0  0  0  0
    3.7568   -1.5210    0.0000 H   0  0  0  0  0  0  0  0  0  0  0  0
    4.3612   -1.0389    0.0000 H   0  0  0  0  0  0  0  0  0  0  0  0
    2.2971   -1.5100    0.0000 H   0  0  0  0  0  0  0  0  0  0  0  0
    3.0508   -1.6821    0.0000 H   0  0  0  0  0  0  0  0  0  0  0  0
    3.0508    1.6821    0.0000 H   0  0  0  0  0  0  0  0  0  0  0  0
    2.2971    1.5100    0.0000 H   0  0  0  0  0  0  0  0  0  0  0  0
    1.7310    1.0586    0.0000 H   0  0  0  0  0  0  0  0  0  0  0  0
    1.3955    0.3620    0.0000 H   0  0  0  0  0  0  0  0  0  0  0  0
    1.3955   -0.3620    0.0000 H   0  0  0  0  0  0  0  0  0  0  0  0
    1.7310   -1.0586    0.0000 H   0  0  0  0  0  0  0  0  0  0  0  0
    5.1906   -0.6200    0.0000 H   0  0  0  0  0  0  0  0  0  0  0  0
    5.8106    0.0000    0.0000 H   0  0  0  0  0  0  0  0  0  0  0  0
    5.1906    0.6200    0.0000 H   0  0  0  0  0  0  0  0  0  0  0  0
  1  2  1  0  0  0  0
  1  3  1  0  0  0  0
  1  8  1  0  0  0  0
  1  9  1  0  0  0  0
  2  4  1  0  0  0  0
  2 12  1  0  0  0  0
  2 13  1  0  0  0  0
  3  5  1  0  0  0  0
  3 10  1  0  0  0  0
  3 11  1  0  0  0  0
  4  7  1  0  0  0  0
  4 14  1  0  0  0  0
  4 15  1  0  0  0  0
  5  6  1  0  0  0  0
  5 16  1  0  0  0  0
  5 17  1  0  0  0  0
  6  7  1  0  0  0  0
  6 18  1  0  0  0  0
  6 19  1  0  0  0  0
  7 20  1  0  0  0  0
  7 21  1  0  0  0  0
  8 22  1  0  0  0  0
  8 23  1  0  0  0  0
  8 24  1  0  0  0  0
M  END
> <PUBCHEM_COMPOUND_CID>
20082

> <PUBCHEM_COMPOUND_CANONICALIZED>
1

> <PUBCHEM_CACTVS_COMPLEXITY>
49.1

> <PUBCHEM_CACTVS_HBOND_ACCEPTOR>
0

> <PUBCHEM_CACTVS_HBOND_DONOR>
0

> <PUBCHEM_CACTVS_ROTATABLE_BOND>
0

> <PUBCHEM_CACTVS_SUBSKEYS>
AAADceBwAAAAAAAAAAAAAAAAAAAAAAAAAAAAAAAABgAAAAAAAAAAGAAAAAAADQCAAAACAAAAAAAAAAAAAAAAAAAAAAAAAAAAAAAAAAIAAAAAAAAAAAAAAAEAgMAOAAAAAAAAAAAAAAAAAAAAAAAAAAAAAA==

> <PUBCHEM_IUPAC_OPENEYE_NAME>
methylcycloheptane

> <PUBCHEM_IUPAC_CAS_NAME>
methylcycloheptane

> <PUBCHEM_IUPAC_NAME>
methylcycloheptane

> <PUBCHEM_IUPAC_SYSTEMATIC_NAME>
methylcycloheptane

> <PUBCHEM_IUPAC_TRADITIONAL_NAME>
methylcycloheptane

> <PUBCHEM_IUPAC_INCHI>
InChI=1S/C8H16/c1-8-6-4-2-3-5-7-8/h8H,2-7H2,1H3

> <PUBCHEM_IUPAC_INCHIKEY>
GYNNXHKOJHMOHS-UHFFFAOYSA-N

> <PUBCHEM_XLOGP3>
4.2

> <PUBCHEM_EXACT_MASS>
112.125

> <PUBCHEM_MOLECULAR_FORMULA>
C8H16

> <PUBCHEM_MOLECULAR_WEIGHT>
112.216

> <PUBCHEM_OPENEYE_CAN_SMILES>
CC1CCCCCC1

> <PUBCHEM_OPENEYE_ISO_SMILES>
CC1CCCCCC1

> <PUBCHEM_CACTVS_TPSA>
0

> <PUBCHEM_MONOISOTOPIC_WEIGHT>
112.125

> <PUBCHEM_TOTAL_CHARGE>
0

> <PUBCHEM_HEAVY_ATOM_COUNT>
8

> <PUBCHEM_ATOM_DEF_STEREO_COUNT>
0

> <PUBCHEM_ATOM_UDEF_STEREO_COUNT>
0

> <PUBCHEM_BOND_DEF_STEREO_COUNT>
0

> <PUBCHEM_BOND_UDEF_STEREO_COUNT>
0

> <PUBCHEM_ISOTOPIC_ATOM_COUNT>
0

> <PUBCHEM_COMPONENT_COUNT>
1

> <PUBCHEM_CACTVS_TAUTO_COUNT>
1

> <PUBCHEM_COORDINATE_TYPE>
1
5
255

$$$$
