16269
  -OEChem-08291812542D

 27 27  0     0  0  0  0  0  0999 V2000
    2.8090   -0.7306    0.0000 C   0  0  0  0  0  0  0  0  0  0  0  0
    2.0000   -1.3184    0.0000 C   0  0  0  0  0  0  0  0  0  0  0  0
    3.6180   -1.3184    0.0000 C   0  0  0  0  0  0  0  0  0  0  0  0
    2.3090   -2.2694    0.0000 C   0  0  0  0  0  0  0  0  0  0  0  0
    3.3090   -2.2694    0.0000 C   0  0  0  0  0  0  0  0  0  0  0  0
    2.8090    0.2694    0.0000 C   0  0  0  0  0  0  0  0  0  0  0  0
    3.6750    0.7694    0.0000 C   0  0  0  0  0  0  0  0  0  0  0  0
    3.6750    1.7694    0.0000 C   0  0  0  0  0  0  0  0  0  0  0  0
    4.5411    2.2694    0.0000 C   0  0  0  0  0  0  0  0  0  0  0  0
    3.3614   -0.4491    0.0000 H   0  0  0  0  0  0  0  0  0  0  0  0
    1.5750   -0.5822    0.0000 H   0  0  0  0  0  0  0  0  0  0  0  0
    1.4336   -1.5705    0.0000 H   0  0  0  0  0  0  0  0  0  0  0  0
    4.1844   -1.5705    0.0000 H   0  0  0  0  0  0  0  0  0  0  0  0
    3.9280   -0.7814    0.0000 H   0  0  0  0  0  0  0  0  0  0  0  0
    1.7026   -2.3983    0.0000 H   0  0  0  0  0  0  0  0  0  0  0  0
    2.3738   -2.8860    0.0000 H   0  0  0  0  0  0  0  0  0  0  0  0
    3.2442   -2.8860    0.0000 H   0  0  0  0  0  0  0  0  0  0  0  0
    3.9155   -2.3983    0.0000 H   0  0  0  0  0  0  0  0  0  0  0  0
    2.5970    0.8520    0.0000 H   0  0  0  0  0  0  0  0  0  0  0  0
    2.1984    0.1618    0.0000 H   0  0  0  0  0  0  0  0  0  0  0  0
    3.8871    0.1868    0.0000 H   0  0  0  0  0  0  0  0  0  0  0  0
    4.2856    0.8771    0.0000 H   0  0  0  0  0  0  0  0  0  0  0  0
    3.4630    2.3520    0.0000 H   0  0  0  0  0  0  0  0  0  0  0  0
    3.0645    1.6618    0.0000 H   0  0  0  0  0  0  0  0  0  0  0  0
    4.8511    1.7325    0.0000 H   0  0  0  0  0  0  0  0  0  0  0  0
    5.0780    2.5794    0.0000 H   0  0  0  0  0  0  0  0  0  0  0  0
    4.2311    2.8064    0.0000 H   0  0  0  0  0  0  0  0  0  0  0  0
  1  2  1  0  0  0  0
  1  3  1  0  0  0  0
  1  6  1  0  0  0  0
  1 10  1  0  0  0  0
  2  4  1  0  0  0  0
  2 11  1  0  0  0  0
  2 12  1  0  0  0  0
  3  5  1  0  0  0  0
  3 13  1  0  0  0  0
  3 14  1  0  0  0  0
  4  5  1  0  0  0  0
  4 15  1  0  0  0  0
  4 16  1  0  0  0  0
  5 17  1  0  0  0  0
  5 18  1  0  0  0  0
  6  7  1  0  0  0  0
  6 19  1  0  0  0  0
  6 20  1  0  0  0  0
  7  8  1  0  0  0  0
  7 21  1  0  0  0  0
  7 22  1  0  0  0  0
  8  9  1  0  0  0  0
  8 23  1  0  0  0  0
  8 24  1  0  0  0  0
  9 25  1  0  0  0  0
  9 26  1  0  0  0  0
  9 27  1  0  0  0  0
M  END
> <PUBCHEM_COMPOUND_CID>
16269

> <PUBCHEM_COMPOUND_CANONICALIZED>
1

> <PUBCHEM_CACTVS_COMPLEXITY>
60.4

> <PUBCHEM_CACTVS_HBOND_ACCEPTOR>
0

> <PUBCHEM_CACTVS_HBOND_DONOR>
0

> <PUBCHEM_CACTVS_ROTATABLE_BOND>
3

> <PUBCHEM_CACTVS_SUBSKEYS>
AAADceBwAAAAAAAAAAAAAAAAAAAAAYAAAAAAAAAAAAAAAAAAAAAAGAAAAAAADQCAAAACAAAAAAAAAAAAAAAAAAAAAAAAAAAAAAAAAAIAAAAAAAAAAAAAAAEAgIAOAAAAAAAAAAAAAAAAAAAAAAAAAAAAAA==

> <PUBCHEM_IUPAC_OPENEYE_NAME>
butylcyclopentane

> <PUBCHEM_IUPAC_CAS_NAME>
butylcyclopentane

> <PUBCHEM_IUPAC_NAME>
butylcyclopentane

> <PUBCHEM_IUPAC_SYSTEMATIC_NAME>
butylcyclopentane

> <PUBCHEM_IUPAC_TRADITIONAL_NAME>
butylcyclopentane

> <PUBCHEM_IUPAC_INCHI>
InChI=1S/C9H18/c1-2-3-6-9-7-4-5-8-9/h9H,2-8H2,1H3

> <PUBCHEM_IUPAC_INCHIKEY>
ZAGHKONXGGSVDV-UHFFFAOYSA-N

> <PUBCHEM_XLOGP3_AA>
4.6

> <PUBCHEM_EXACT_MASS>
126.141

> <PUBCHEM_MOLECULAR_FORMULA>
C9H18

> <PUBCHEM_MOLECULAR_WEIGHT>
126.243

> <PUBCHEM_OPENEYE_CAN_SMILES>
CCCCC1CCCC1

> <PUBCHEM_OPENEYE_ISO_SMILES>
CCCCC1CCCC1

> <PUBCHEM_CACTVS_TPSA>
0

> <PUBCHEM_MONOISOTOPIC_WEIGHT>
126.141

> <PUBCHEM_TOTAL_CHARGE>
0

> <PUBCHEM_HEAVY_ATOM_COUNT>
9

> <PUBCHEM_ATOM_DEF_STEREO_COUNT>
0

> <PUBCHEM_ATOM_UDEF_STEREO_COUNT>
1

> <PUBCHEM_BOND_DEF_STEREO_COUNT>
0

> <PUBCHEM_BOND_UDEF_STEREO_COUNT>
0

> <PUBCHEM_ISOTOPIC_ATOM_COUNT>
0

> <PUBCHEM_COMPONENT_COUNT>
1

> <PUBCHEM_CACTVS_TAUTO_COUNT>
1

> <PUBCHEM_COORDINATE_TYPE>
1
5
255

> <PUBCHEM_BONDANNOTATIONS>
2  11  3

$$$$
