85150
  -OEChem-08291812512D

 32 31  0     0  0  0  0  0  0999 V2000
    2.8660    0.0000    0.0000 C   0  0  0  0  0  0  0  0  0  0  0  0
    3.7320    0.5000    0.0000 C   0  0  0  0  0  0  0  0  0  0  0  0
    4.5981    0.0000    0.0000 C   0  0  0  0  0  0  0  0  0  0  0  0
    5.4641    0.5000    0.0000 C   0  0  0  0  0  0  0  0  0  0  0  0
    2.0000   -0.5000    0.0000 C   0  0  0  0  0  0  0  0  0  0  0  0
    2.3660    0.8660    0.0000 C   0  0  0  0  0  0  0  0  0  0  0  0
    3.3660   -0.8660    0.0000 C   0  0  0  0  0  0  0  0  0  0  0  0
    6.3301    0.0000    0.0000 C   0  0  0  0  0  0  0  0  0  0  0  0
    7.1962    0.5000    0.0000 C   0  0  0  0  0  0  0  0  0  0  0  0
    8.0622    0.0000    0.0000 C   0  0  0  0  0  0  0  0  0  0  0  0
    4.1306    0.9749    0.0000 H   0  0  0  0  0  0  0  0  0  0  0  0
    3.3335    0.9749    0.0000 H   0  0  0  0  0  0  0  0  0  0  0  0
    4.1996   -0.4749    0.0000 H   0  0  0  0  0  0  0  0  0  0  0  0
    4.9966   -0.4749    0.0000 H   0  0  0  0  0  0  0  0  0  0  0  0
    5.8626    0.9749    0.0000 H   0  0  0  0  0  0  0  0  0  0  0  0
    5.0656    0.9749    0.0000 H   0  0  0  0  0  0  0  0  0  0  0  0
    2.8291   -1.1760    0.0000 H   0  0  0  0  0  0  0  0  0  0  0  0
    3.6760   -1.4030    0.0000 H   0  0  0  0  0  0  0  0  0  0  0  0
    3.9030   -0.5560    0.0000 H   0  0  0  0  0  0  0  0  0  0  0  0
    2.9030    1.1760    0.0000 H   0  0  0  0  0  0  0  0  0  0  0  0
    2.0560    1.4030    0.0000 H   0  0  0  0  0  0  0  0  0  0  0  0
    1.8291    0.5560    0.0000 H   0  0  0  0  0  0  0  0  0  0  0  0
    1.6900    0.0369    0.0000 H   0  0  0  0  0  0  0  0  0  0  0  0
    1.4631   -0.8100    0.0000 H   0  0  0  0  0  0  0  0  0  0  0  0
    2.3100   -1.0369    0.0000 H   0  0  0  0  0  0  0  0  0  0  0  0
    5.9316   -0.4749    0.0000 H   0  0  0  0  0  0  0  0  0  0  0  0
    6.7287   -0.4749    0.0000 H   0  0  0  0  0  0  0  0  0  0  0  0
    7.5947    0.9749    0.0000 H   0  0  0  0  0  0  0  0  0  0  0  0
    6.7976    0.9749    0.0000 H   0  0  0  0  0  0  0  0  0  0  0  0
    7.7522   -0.5369    0.0000 H   0  0  0  0  0  0  0  0  0  0  0  0
    8.5991   -0.3100    0.0000 H   0  0  0  0  0  0  0  0  0  0  0  0
    8.3722    0.5369    0.0000 H   0  0  0  0  0  0  0  0  0  0  0  0
  1  2  1  0  0  0  0
  1  5  1  0  0  0  0
  1  6  1  0  0  0  0
  1  7  1  0  0  0  0
  2  3  1  0  0  0  0
  2 11  1  0  0  0  0
  2 12  1  0  0  0  0
  3  4  1  0  0  0  0
  3 13  1  0  0  0  0
  3 14  1  0  0  0  0
  4  8  1  0  0  0  0
  4 15  1  0  0  0  0
  4 16  1  0  0  0  0
  5 23  1  0  0  0  0
  5 24  1  0  0  0  0
  5 25  1  0  0  0  0
  6 20  1  0  0  0  0
  6 21  1  0  0  0  0
  6 22  1  0  0  0  0
  7 17  1  0  0  0  0
  7 18  1  0  0  0  0
  7 19  1  0  0  0  0
  8  9  1  0  0  0  0
  8 26  1  0  0  0  0
  8 27  1  0  0  0  0
  9 10  1  0  0  0  0
  9 28  1  0  0  0  0
  9 29  1  0  0  0  0
 10 30  1  0  0  0  0
 10 31  1  0  0  0  0
 10 32  1  0  0  0  0
M  END
> <PUBCHEM_COMPOUND_CID>
85150

> <PUBCHEM_COMPOUND_CANONICALIZED>
1

> <PUBCHEM_CACTVS_COMPLEXITY>
66.6

> <PUBCHEM_CACTVS_HBOND_ACCEPTOR>
0

> <PUBCHEM_CACTVS_HBOND_DONOR>
0

> <PUBCHEM_CACTVS_ROTATABLE_BOND>
5

> <PUBCHEM_CACTVS_SUBSKEYS>
AAADceBwAAAAAAAAAAAAAAAAAAAAAAAAAAAAAAAAAAAAAAAAAAAAGAAAAAAADgCAAAACAAAAAAAAAAAAAAAAAAAAAAAAAAAAAAAAAAIAAAAAAAAAAAAAAAEAgMANAAAAAAAAAAAAAAAAAAAAAAAAAAAAAA==

> <PUBCHEM_IUPAC_OPENEYE_NAME>
2,2-dimethyloctane

> <PUBCHEM_IUPAC_CAS_NAME>
2,2-dimethyloctane

> <PUBCHEM_IUPAC_NAME>
2,2-dimethyloctane

> <PUBCHEM_IUPAC_SYSTEMATIC_NAME>
2,2-dimethyloctane

> <PUBCHEM_IUPAC_TRADITIONAL_NAME>
2,2-dimethyloctane

> <PUBCHEM_IUPAC_INCHI>
InChI=1S/C10H22/c1-5-6-7-8-9-10(2,3)4/h5-9H2,1-4H3

> <PUBCHEM_IUPAC_INCHIKEY>
GPBUTTSWJNPYJL-UHFFFAOYSA-N

> <PUBCHEM_XLOGP3_AA>
5.2

> <PUBCHEM_EXACT_MASS>
142.172

> <PUBCHEM_MOLECULAR_FORMULA>
C10H22

> <PUBCHEM_MOLECULAR_WEIGHT>
142.286

> <PUBCHEM_OPENEYE_CAN_SMILES>
CCCCCCC(C)(C)C

> <PUBCHEM_OPENEYE_ISO_SMILES>
CCCCCCC(C)(C)C

> <PUBCHEM_CACTVS_TPSA>
0

> <PUBCHEM_MONOISOTOPIC_WEIGHT>
142.172

> <PUBCHEM_TOTAL_CHARGE>
0

> <PUBCHEM_HEAVY_ATOM_COUNT>
10

> <PUBCHEM_ATOM_DEF_STEREO_COUNT>
0

> <PUBCHEM_ATOM_UDEF_STEREO_COUNT>
0

> <PUBCHEM_BOND_DEF_STEREO_COUNT>
0

> <PUBCHEM_BOND_UDEF_STEREO_COUNT>
0

> <PUBCHEM_ISOTOPIC_ATOM_COUNT>
0

> <PUBCHEM_COMPONENT_COUNT>
1

> <PUBCHEM_CACTVS_TAUTO_COUNT>
1

> <PUBCHEM_COORDINATE_TYPE>
1
5
255

$$$$
